<routes xmlns:xsi="http://www.w3.org/2001/XMLSchema-instance" xsi:noNamespaceSchemaLocation="http://sumo.sf.net/xsd/routes_file.xsd">
   <route id="0" edges="122394833#0 122394833#1 122394833#2 122394833#3 122394833#4 122394833#5 -23182484#1 190048063 139118806 -190048065 -132323955"/>
   <vType id="KRAUSS_DEFAULT" accel="2.6" decel="4.5" sigma="0.5" length="3" minGap="2" maxSpeed="70" color="1,1,0"/>
   <flow id="0" type="KRAUSS_DEFAULT" route="0" begin="0" end="101" period="1" departPos="0"/>
</routes>
