<?xml version="1.0" encoding="UTF-8"?>

<!-- generated on 04/18/13 16:11:29 by SUMO netconvert Version 0.16.0
<?xml version="1.0" encoding="UTF-8"?>

<configuration xmlns:xsi="http://www.w3.org/2001/XMLSchema-instance" xsi:noNamespaceSchemaLocation="http://sumo.sf.net/xsd/netconvertConfiguration.xsd">

    <input>
        <osm-files value="polito.osm"/>
    </input>

    <output>
        <output-file value="polito.net.xml"/>
    </output>

    <projection>
        <proj.utm value="true"/>
    </projection>

</configuration>
-->

<net version="0.13" xmlns:xsi="http://www.w3.org/2001/XMLSchema-instance" xsi:noNamespaceSchemaLocation="http://sumo.sf.net/xsd/net_file.xsd">

    <location netOffset="-393419.93,-4989448.35" convBoundary="0.00,0.00,2575.84,2867.89" origBoundary="7.646102,45.050621,7.678963,45.076501" projParameter="+proj=utm +zone=32 +ellps=WGS84 +datum=WGS84 +units=m +no_defs"/>

    <edge id=":1096401733_0" function="internal">
        <lane id=":1096401733_0_0" index="0" speed="22.22" length="5.05" shape="830.23,973.05 831.19,973.81 832.29,974.18 833.52,974.17 834.90,973.76"/>
    </edge>
    <edge id=":1096401733_1" function="internal">
        <lane id=":1096401733_1_0" index="0" speed="22.22" length="5.65" shape="830.23,973.05 833.25,977.83"/>
    </edge>
    <edge id=":1168929269_0" function="internal">
        <lane id=":1168929269_0_0" index="0" speed="27.78" length="3.71" shape="1188.47,1081.06 1188.62,1081.22 1188.98,1081.81 1189.54,1082.83 1190.30,1084.27"/>
    </edge>
    <edge id=":1168929269_1" function="internal">
        <lane id=":1168929269_1_0" index="0" speed="27.78" length="5.86" shape="1188.47,1081.06 1183.60,1084.33"/>
    </edge>
    <edge id=":1168929269_2" function="internal">
        <lane id=":1168929269_2_0" index="0" speed="27.78" length="7.29" shape="1186.90,1077.82 1190.30,1084.27"/>
    </edge>
    <edge id=":1168929269_3" function="internal">
        <lane id=":1168929269_3_0" index="0" speed="27.78" length="7.28" shape="1183.98,1079.36 1187.38,1085.80"/>
    </edge>
    <edge id=":1168929269_4" function="internal">
        <lane id=":1168929269_4_0" index="0" speed="27.78" length="5.57" shape="1183.98,1079.36 1184.68,1081.03 1184.85,1082.42 1184.49,1083.52 1183.60,1084.33"/>
    </edge>
    <edge id=":1168929272_0" function="internal">
        <lane id=":1168929272_0_0" index="0" speed="25.00" length="4.96" shape="1139.65,1049.41 1137.36,1045.01"/>
    </edge>
    <edge id=":1168929272_1" function="internal">
        <lane id=":1168929272_1_0" index="0" speed="27.78" length="5.00" shape="1139.65,1049.41 1141.54,1044.78"/>
    </edge>
    <edge id=":1168929295_0" function="internal">
        <lane id=":1168929295_0_0" index="0" speed="25.00" length="5.06" shape="1160.41,1090.51 1158.14,1085.99"/>
    </edge>
    <edge id=":1168929295_1" function="internal">
        <lane id=":1168929295_1_0" index="0" speed="27.78" length="5.13" shape="1163.12,1087.21 1158.14,1085.99"/>
    </edge>
    <edge id=":1168929298_0" function="internal">
        <lane id=":1168929298_0_0" index="0" speed="22.22" length="6.97" shape="820.24,960.93 823.89,966.87"/>
    </edge>
    <edge id=":1168929298_1" function="internal">
        <lane id=":1168929298_1_0" index="0" speed="22.22" length="7.30" shape="817.29,963.74 823.89,966.87"/>
    </edge>
    <edge id=":1168929308_0" function="internal">
        <lane id=":1168929308_0_0" index="0" speed="22.22" length="6.45" shape="774.37,984.96 776.33,984.42 777.17,983.57 776.88,982.42 775.46,980.96"/>
    </edge>
    <edge id=":1168929308_1" function="internal">
        <lane id=":1168929308_1_0" index="0" speed="22.22" length="8.73" shape="774.37,984.96 777.61,984.35 780.01,983.63 781.57,982.82 782.29,981.90"/>
    </edge>
    <edge id=":1168929308_2" function="internal">
        <lane id=":1168929308_2_0" index="0" speed="22.22" length="2.41" shape="774.37,984.96 775.72,985.58 776.25,986.34"/>
    </edge>
    <edge id=":1168929308_6" function="internal">
        <lane id=":1168929308_6_0" index="0" speed="22.22" length="2.41" shape="776.25,986.34 775.97,987.22 774.87,988.22"/>
    </edge>
    <edge id=":1168929308_3" function="internal">
        <lane id=":1168929308_3_0" index="0" speed="22.22" length="7.71" shape="781.10,990.85 780.65,989.35 779.46,988.41 777.53,988.04 774.87,988.22"/>
    </edge>
    <edge id=":1168929308_4" function="internal">
        <lane id=":1168929308_4_0" index="0" speed="22.22" length="11.72" shape="781.10,990.85 780.65,988.17 779.57,985.63 777.84,983.23 775.46,980.96"/>
    </edge>
    <edge id=":1168929308_5" function="internal">
        <lane id=":1168929308_5_0" index="0" speed="22.22" length="9.03" shape="781.10,990.85 782.29,981.90"/>
    </edge>
    <edge id=":1168929310_0" function="internal">
        <lane id=":1168929310_0_0" index="0" speed="27.78" length="1.95" shape="1139.29,1064.21 1139.04,1062.27"/>
    </edge>
    <edge id=":1168929310_1" function="internal">
        <lane id=":1168929310_1_0" index="0" speed="27.78" length="3.94" shape="1139.29,1064.21 1139.50,1064.08 1140.13,1063.70 1141.19,1063.07 1142.67,1062.18"/>
    </edge>
    <edge id=":1168929310_2" function="internal">
        <lane id=":1168929310_2_0" index="0" speed="27.78" length="2.07" shape="1139.08,1064.31 1139.16,1064.14 1139.17,1063.75 1139.14,1063.12 1139.04,1062.27"/>
    </edge>
    <edge id=":1168929310_3" function="internal">
        <lane id=":1168929310_3_0" index="0" speed="27.78" length="4.18" shape="1139.08,1064.31 1142.67,1062.18"/>
    </edge>
    <edge id=":1168929324_0" function="internal">
        <lane id=":1168929324_0_0" index="0" speed="27.78" length="4.59" shape="1203.15,1049.52 1201.42,1050.56 1200.16,1051.19 1199.38,1051.41 1199.09,1051.22"/>
    </edge>
    <edge id=":1168929324_1" function="internal">
        <lane id=":1168929324_1_0" index="0" speed="27.78" length="7.85" shape="1201.39,1046.73 1195.60,1052.03"/>
    </edge>
    <edge id=":1168929324_2" function="internal">
        <lane id=":1168929324_2_0" index="0" speed="27.78" length="1.96" shape="1198.68,1049.30 1199.09,1051.22"/>
    </edge>
    <edge id=":1168929324_3" function="internal">
        <lane id=":1168929324_3_0" index="0" speed="27.78" length="4.27" shape="1198.68,1049.30 1198.59,1049.81 1198.04,1050.44 1197.05,1051.18 1195.60,1052.03"/>
    </edge>
    <edge id=":1168929349_0" function="internal">
        <lane id=":1168929349_0_0" index="0" speed="25.00" length="7.92" shape="831.77,1004.67 830.98,1006.28 830.74,1008.07 831.06,1010.04 831.94,1012.19"/>
    </edge>
    <edge id=":1168929349_1" function="internal">
        <lane id=":1168929349_1_0" index="0" speed="22.22" length="13.80" shape="831.77,1004.67 829.59,1007.48 827.29,1009.90 824.74,1012.06 821.83,1014.12"/>
    </edge>
    <edge id=":1168929349_2" function="internal">
        <lane id=":1168929349_2_0" index="0" speed="27.78" length="9.10" shape="827.65,1004.17 831.94,1012.19"/>
    </edge>
    <edge id=":1168929349_3" function="internal">
        <lane id=":1168929349_3_0" index="0" speed="27.78" length="9.02" shape="824.76,1005.76 829.01,1013.71"/>
    </edge>
    <edge id=":1168929349_4" function="internal">
        <lane id=":1168929349_4_0" index="0" speed="27.78" length="8.95" shape="821.86,1007.34 826.08,1015.23"/>
    </edge>
    <edge id=":1168929349_5" function="internal">
        <lane id=":1168929349_5_0" index="0" speed="25.00" length="7.48" shape="821.86,1007.34 822.88,1009.63 823.21,1011.52 822.86,1013.02 821.83,1014.12"/>
    </edge>
    <edge id=":1168929367_0" function="internal">
        <lane id=":1168929367_0_0" index="0" speed="25.00" length="4.31" shape="1182.95,1030.19 1186.71,1028.10"/>
    </edge>
    <edge id=":1168929367_1" function="internal">
        <lane id=":1168929367_1_0" index="0" speed="27.78" length="3.91" shape="1182.95,1030.19 1186.33,1032.16"/>
    </edge>
    <edge id=":1168929382_0" function="internal">
        <lane id=":1168929382_0_0" index="0" speed="27.78" length="8.16" shape="1149.52,1039.34 1145.73,1032.11"/>
    </edge>
    <edge id=":1168929382_1" function="internal">
        <lane id=":1168929382_1_0" index="0" speed="27.78" length="8.18" shape="1152.45,1037.81 1148.64,1030.57"/>
    </edge>
    <edge id=":1168929382_2" function="internal">
        <lane id=":1168929382_2_0" index="0" speed="27.78" length="6.17" shape="1152.45,1037.81 1151.58,1035.82 1151.24,1034.22 1151.43,1032.99 1152.15,1032.14"/>
    </edge>
    <edge id=":1168929382_3" function="internal">
        <lane id=":1168929382_3_0" index="0" speed="27.78" length="4.64" shape="1148.91,1034.59 1148.28,1034.93 1147.53,1034.64 1146.69,1033.70 1145.73,1032.11"/>
    </edge>
    <edge id=":1168929382_4" function="internal">
        <lane id=":1168929382_4_0" index="0" speed="27.78" length="4.07" shape="1148.91,1034.59 1152.15,1032.14"/>
    </edge>
    <edge id=":1168929383_0" function="internal">
        <lane id=":1168929383_0_0" index="0" speed="27.78" length="3.03" shape="1145.22,1076.44 1144.92,1076.36 1144.36,1076.50 1143.53,1076.86 1142.44,1077.45"/>
    </edge>
    <edge id=":1168929383_1" function="internal">
        <lane id=":1168929383_1_0" index="0" speed="27.78" length="5.47" shape="1145.22,1076.44 1142.17,1071.90"/>
    </edge>
    <edge id=":1168929383_2" function="internal">
        <lane id=":1168929383_2_0" index="0" speed="27.78" length="2.08" shape="1145.22,1076.44 1145.13,1074.37"/>
    </edge>
    <edge id=":1168929383_9" function="internal">
        <lane id=":1168929383_9_0" index="0" speed="27.78" length="5.90" shape="1145.13,1074.37 1144.88,1068.47"/>
    </edge>
    <edge id=":1168929383_3" function="internal">
        <lane id=":1168929383_3_0" index="0" speed="27.78" length="7.33" shape="1148.13,1074.22 1140.81,1074.58"/>
    </edge>
    <edge id=":1168929383_4" function="internal">
        <lane id=":1168929383_4_0" index="0" speed="27.78" length="4.81" shape="1146.51,1071.35 1144.86,1072.16 1143.59,1072.52 1142.69,1072.44 1142.17,1071.90"/>
    </edge>
    <edge id=":1168929383_5" function="internal">
        <lane id=":1168929383_5_0" index="0" speed="27.78" length="2.41" shape="1146.51,1071.35 1145.02,1071.24 1144.26,1070.72"/>
    </edge>
    <edge id=":1168929383_10" function="internal">
        <lane id=":1168929383_10_0" index="0" speed="27.78" length="2.41" shape="1144.26,1070.72 1144.21,1069.80 1144.88,1068.47"/>
    </edge>
    <edge id=":1168929383_6" function="internal">
        <lane id=":1168929383_6_0" index="0" speed="27.78" length="5.55" shape="1137.55,1068.84 1142.17,1071.90"/>
    </edge>
    <edge id=":1168929383_7" function="internal">
        <lane id=":1168929383_7_0" index="0" speed="27.78" length="7.34" shape="1139.18,1071.71 1143.26,1065.60"/>
    </edge>
    <edge id=":1168929383_8" function="internal">
        <lane id=":1168929383_8_0" index="0" speed="27.78" length="2.41" shape="1139.18,1071.71 1140.66,1071.81 1141.43,1072.33"/>
    </edge>
    <edge id=":1168929383_11" function="internal">
        <lane id=":1168929383_11_0" index="0" speed="27.78" length="2.41" shape="1141.43,1072.33 1141.48,1073.25 1140.81,1074.58"/>
    </edge>
    <edge id=":1168929385_0" function="internal">
        <lane id=":1168929385_0_0" index="0" speed="27.78" length="1.73" shape="1160.50,1027.89 1160.47,1028.06 1160.22,1028.24 1159.74,1028.44 1159.04,1028.67"/>
    </edge>
    <edge id=":1168929385_1" function="internal">
        <lane id=":1168929385_1_0" index="0" speed="27.78" length="2.90" shape="1160.50,1027.89 1161.85,1030.46"/>
    </edge>
    <edge id=":1168929385_2" function="internal">
        <lane id=":1168929385_2_0" index="0" speed="27.78" length="6.21" shape="1156.03,1026.52 1158.94,1032.00"/>
    </edge>
    <edge id=":1168929385_3" function="internal">
        <lane id=":1168929385_3_0" index="0" speed="27.78" length="4.97" shape="1154.36,1030.34 1159.04,1028.67"/>
    </edge>
    <edge id=":1168929385_4" function="internal">
        <lane id=":1168929385_4_0" index="0" speed="27.78" length="5.39" shape="1154.36,1030.34 1155.82,1030.03 1157.06,1030.20 1158.10,1030.86 1158.94,1032.00"/>
    </edge>
    <edge id=":1168929388_0" function="internal">
        <lane id=":1168929388_0_0" index="0" speed="27.78" length="6.34" shape="1186.64,1032.40 1188.04,1033.22 1189.50,1033.57 1191.02,1033.45 1192.60,1032.86"/>
    </edge>
    <edge id=":1168929388_1" function="internal">
        <lane id=":1168929388_1_0" index="0" speed="27.78" length="4.91" shape="1186.64,1032.40 1190.83,1034.95"/>
    </edge>
    <edge id=":1168929388_2" function="internal">
        <lane id=":1168929388_2_0" index="0" speed="27.78" length="7.47" shape="1186.08,1036.49 1192.60,1032.86"/>
    </edge>
    <edge id=":1168929388_3" function="internal">
        <lane id=":1168929388_3_0" index="0" speed="27.78" length="5.22" shape="1186.08,1036.49 1187.92,1035.47 1189.32,1034.87 1190.30,1034.70 1190.83,1034.95"/>
    </edge>
    <edge id=":1168929398_0" function="internal">
        <lane id=":1168929398_0_0" index="0" speed="22.22" length="0.18" shape="808.15,1035.82 808.12,1035.99"/>
    </edge>
    <edge id=":1168929398_1" function="internal">
        <lane id=":1168929398_1_0" index="0" speed="22.22" length="2.41" shape="808.15,1035.82 807.07,1036.85 806.18,1037.07"/>
    </edge>
    <edge id=":1168929398_4" function="internal">
        <lane id=":1168929398_4_0" index="0" speed="22.22" length="2.41" shape="806.18,1037.07 805.46,1036.48 804.93,1035.09"/>
    </edge>
    <edge id=":1168929398_2" function="internal">
        <lane id=":1168929398_2_0" index="0" speed="22.22" length="0.54" shape="804.84,1035.62 804.93,1035.09"/>
    </edge>
    <edge id=":1168929398_3" function="internal">
        <lane id=":1168929398_3_0" index="0" speed="22.22" length="2.41" shape="804.84,1035.62 805.80,1034.49 806.67,1034.17"/>
    </edge>
    <edge id=":1168929398_5" function="internal">
        <lane id=":1168929398_5_0" index="0" speed="22.22" length="2.41" shape="806.67,1034.17 807.44,1034.67 808.12,1035.99"/>
    </edge>
    <edge id=":1168929459_0" function="internal">
        <lane id=":1168929459_0_0" index="0" speed="25.00" length="6.28" shape="1198.42,1066.20 1199.90,1072.31"/>
    </edge>
    <edge id=":1168929459_1" function="internal">
        <lane id=":1168929459_1_0" index="0" speed="27.78" length="6.65" shape="1198.42,1066.20 1195.66,1072.25"/>
    </edge>
    <edge id=":1168929523_0" function="internal">
        <lane id=":1168929523_0_0" index="0" speed="27.78" length="4.11" shape="1148.48,1079.88 1147.88,1079.62 1147.04,1079.67 1145.96,1080.02 1144.64,1080.68"/>
    </edge>
    <edge id=":1168929523_1" function="internal">
        <lane id=":1168929523_1_0" index="0" speed="27.78" length="2.23" shape="1148.48,1079.88 1146.54,1078.78"/>
    </edge>
    <edge id=":1168929523_2" function="internal">
        <lane id=":1168929523_2_0" index="0" speed="27.78" length="7.02" shape="1150.64,1077.04 1144.64,1080.68"/>
    </edge>
    <edge id=":1168929523_3" function="internal">
        <lane id=":1168929523_3_0" index="0" speed="27.78" length="4.51" shape="1150.64,1077.04 1148.94,1077.96 1147.70,1078.55 1146.89,1078.83 1146.54,1078.78"/>
    </edge>
    <edge id=":1168929542_0" function="internal">
        <lane id=":1168929542_0_0" index="0" speed="22.22" length="9.09" shape="836.13,986.53 839.71,994.88"/>
    </edge>
    <edge id=":1168929542_1" function="internal">
        <lane id=":1168929542_1_0" index="0" speed="22.22" length="9.13" shape="836.13,986.53 835.54,995.65"/>
    </edge>
    <edge id=":1168929546_0" function="internal">
        <lane id=":1168929546_0_0" index="0" speed="5.56" length="6.46" shape="1162.97,1032.37 1159.95,1026.66"/>
    </edge>
    <edge id=":1168929546_1" function="internal">
        <lane id=":1168929546_1_0" index="0" speed="16.67" length="10.02" shape="1162.97,1032.37 1162.09,1029.80 1162.61,1028.05 1164.53,1027.11 1167.86,1026.99"/>
    </edge>
    <edge id=":1168929546_2" function="internal">
        <lane id=":1168929546_2_0" index="0" speed="5.56" length="4.82" shape="1162.97,1032.37 1163.12,1030.89 1163.65,1030.14 1164.57,1030.12 1165.88,1030.82"/>
    </edge>
    <edge id=":1168929546_3" function="internal">
        <lane id=":1168929546_3_0" index="0" speed="16.67" length="5.49" shape="1162.88,1025.14 1163.49,1025.84 1164.53,1026.38 1165.98,1026.76 1167.86,1026.99"/>
    </edge>
    <edge id=":1168929546_4" function="internal">
        <lane id=":1168929546_4_0" index="0" speed="5.56" length="6.42" shape="1162.88,1025.14 1165.88,1030.82"/>
    </edge>
    <edge id=":1168929546_5" function="internal">
        <lane id=":1168929546_5_0" index="0" speed="5.56" length="4.82" shape="1162.88,1025.14 1162.72,1026.62 1162.18,1027.37 1161.26,1027.38 1159.95,1026.66"/>
    </edge>
    <edge id=":1168929546_6" function="internal">
        <lane id=":1168929546_6_0" index="0" speed="16.67" length="2.88" shape="1162.36,1027.71 1161.60,1027.82 1160.95,1027.68 1160.40,1027.30 1159.95,1026.66"/>
    </edge>
    <edge id=":1168929546_7" function="internal">
        <lane id=":1168929546_7_0" index="0" speed="27.78" length="5.55" shape="1162.36,1027.71 1167.86,1026.99"/>
    </edge>
    <edge id=":1168929546_8" function="internal">
        <lane id=":1168929546_8_0" index="0" speed="16.67" length="5.00" shape="1162.36,1027.71 1163.19,1027.73 1164.05,1028.26 1164.95,1029.29 1165.88,1030.82"/>
    </edge>
    <edge id=":1168929549_0" function="internal">
        <lane id=":1168929549_0_0" index="0" speed="25.00" length="4.21" shape="1201.76,1057.55 1200.88,1058.18 1200.19,1058.94 1199.70,1059.83 1199.40,1060.87"/>
    </edge>
    <edge id=":1168929549_1" function="internal">
        <lane id=":1168929549_1_0" index="0" speed="27.78" length="3.86" shape="1199.82,1057.03 1199.40,1060.87"/>
    </edge>
    <edge id=":1168929558_0" function="internal">
        <lane id=":1168929558_0_0" index="0" speed="27.78" length="3.99" shape="1178.62,1088.72 1181.38,1085.83"/>
    </edge>
    <edge id=":1168929558_1" function="internal">
        <lane id=":1168929558_1_0" index="0" speed="27.78" length="4.51" shape="1181.54,1087.18 1177.19,1085.99"/>
    </edge>
    <edge id=":1168929558_2" function="internal">
        <lane id=":1168929558_2_0" index="0" speed="27.78" length="2.41" shape="1181.54,1087.18 1181.71,1085.70 1182.26,1084.96"/>
    </edge>
    <edge id=":1168929558_9" function="internal">
        <lane id=":1168929558_9_0" index="0" speed="27.78" length="2.41" shape="1182.26,1084.96 1183.18,1084.95 1184.48,1085.68"/>
    </edge>
    <edge id=":1168929558_3" function="internal">
        <lane id=":1168929558_3_0" index="0" speed="27.78" length="4.37" shape="1183.05,1084.65 1187.39,1084.12"/>
    </edge>
    <edge id=":1168929558_4" function="internal">
        <lane id=":1168929558_4_0" index="0" speed="27.78" length="2.04" shape="1183.05,1084.65 1181.38,1085.83"/>
    </edge>
    <edge id=":1168929558_5" function="internal">
        <lane id=":1168929558_5_0" index="0" speed="27.78" length="3.43" shape="1183.05,1084.65 1182.04,1085.11 1181.21,1085.21 1180.55,1084.96 1180.06,1084.35"/>
    </edge>
    <edge id=":1168929558_6" function="internal">
        <lane id=":1168929558_6_0" index="0" speed="27.78" length="4.51" shape="1185.98,1081.42 1184.48,1085.68"/>
    </edge>
    <edge id=":1168929558_7" function="internal">
        <lane id=":1168929558_7_0" index="0" speed="27.78" length="4.09" shape="1183.00,1082.85 1183.33,1083.87 1183.17,1084.71 1182.52,1085.36 1181.38,1085.83"/>
    </edge>
    <edge id=":1168929558_8" function="internal">
        <lane id=":1168929558_8_0" index="0" speed="27.78" length="2.41" shape="1183.00,1082.85 1182.83,1084.33 1182.28,1085.07"/>
    </edge>
    <edge id=":1168929558_10" function="internal">
        <lane id=":1168929558_10_0" index="0" speed="27.78" length="2.41" shape="1182.28,1085.07 1181.36,1085.08 1180.06,1084.35"/>
    </edge>
    <edge id=":1168929562_0" function="internal">
        <lane id=":1168929562_0_0" index="0" speed="27.78" length="3.36" shape="1176.66,1091.21 1176.09,1089.96 1175.87,1089.07 1176.01,1088.55 1176.50,1088.39"/>
    </edge>
    <edge id=":1168929562_1" function="internal">
        <lane id=":1168929562_1_0" index="0" speed="27.78" length="8.19" shape="1176.66,1091.21 1172.87,1083.96"/>
    </edge>
    <edge id=":1168929562_2" function="internal">
        <lane id=":1168929562_2_0" index="0" speed="27.78" length="8.19" shape="1179.59,1089.69 1175.79,1082.43"/>
    </edge>
    <edge id=":1168929562_3" function="internal">
        <lane id=":1168929562_3_0" index="0" speed="27.78" length="5.19" shape="1180.93,1085.69 1176.50,1088.39"/>
    </edge>
    <edge id=":1168929562_4" function="internal">
        <lane id=":1168929562_4_0" index="0" speed="27.78" length="6.09" shape="1180.93,1085.69 1175.79,1082.43"/>
    </edge>
    <edge id=":1168929585_0" function="internal">
        <lane id=":1168929585_0_0" index="0" speed="25.00" length="4.35" shape="1173.02,1023.64 1173.90,1025.33 1174.52,1026.54 1174.89,1027.26 1175.02,1027.50"/>
    </edge>
    <edge id=":1168929585_1" function="internal">
        <lane id=":1168929585_1_0" index="0" speed="27.78" length="4.35" shape="1170.68,1027.19 1175.02,1027.50"/>
    </edge>
    <edge id=":1168929600_0" function="internal">
        <lane id=":1168929600_0_0" index="0" speed="25.00" length="7.53" shape="802.83,958.49 803.99,960.32 805.36,961.59 806.93,962.28 808.70,962.41"/>
    </edge>
    <edge id=":1168929600_1" function="internal">
        <lane id=":1168929600_1_0" index="0" speed="27.78" length="8.71" shape="802.83,958.49 806.90,966.19"/>
    </edge>
    <edge id=":1168929600_2" function="internal">
        <lane id=":1168929600_2_0" index="0" speed="27.78" length="8.82" shape="799.88,959.98 804.00,967.77"/>
    </edge>
    <edge id=":1168929600_3" function="internal">
        <lane id=":1168929600_3_0" index="0" speed="27.78" length="8.93" shape="796.93,961.47 801.11,969.36"/>
    </edge>
    <edge id=":1168929600_4" function="internal">
        <lane id=":1168929600_4_0" index="0" speed="22.22" length="13.90" shape="795.39,965.61 798.46,963.90 801.68,963.04 805.09,962.66 808.70,962.41"/>
    </edge>
    <edge id=":1168929600_5" function="internal">
        <lane id=":1168929600_5_0" index="0" speed="25.00" length="3.35" shape="795.39,965.61 797.91,964.27 798.41,964.25"/>
    </edge>
    <edge id=":1168929600_7" function="internal">
        <lane id=":1168929600_7_0" index="0" speed="25.00" length="7.14" shape="798.41,964.25 800.18,964.18 802.21,965.35 804.00,967.77"/>
    </edge>
    <edge id=":1168929600_6" function="internal">
        <lane id=":1168929600_6_0" index="0" speed="25.00" length="7.74" shape="795.39,965.61 796.73,965.11 798.12,965.57 799.58,966.99 801.11,969.36"/>
    </edge>
    <edge id=":1168929613_0" function="internal">
        <lane id=":1168929613_0_0" index="0" speed="27.78" length="3.40" shape="1138.79,1060.29 1138.59,1056.89"/>
    </edge>
    <edge id=":1168929613_1" function="internal">
        <lane id=":1168929613_1_0" index="0" speed="25.00" length="4.98" shape="1135.18,1060.30 1136.66,1059.39 1137.72,1058.52 1138.36,1057.69 1138.59,1056.89"/>
    </edge>
    <edge id=":1168929634_0" function="internal">
        <lane id=":1168929634_0_0" index="0" speed="27.78" length="4.55" shape="1149.84,1035.06 1151.24,1030.73"/>
    </edge>
    <edge id=":1168929634_1" function="internal">
        <lane id=":1168929634_1_0" index="0" speed="27.78" length="3.86" shape="1152.71,1033.42 1152.54,1032.73 1152.82,1032.03 1153.56,1031.34 1154.75,1030.65"/>
    </edge>
    <edge id=":1168929634_2" function="internal">
        <lane id=":1168929634_2_0" index="0" speed="27.78" length="2.41" shape="1152.71,1033.42 1152.90,1031.95 1153.45,1031.21"/>
    </edge>
    <edge id=":1168929634_9" function="internal">
        <lane id=":1168929634_9_0" index="0" speed="27.78" length="2.41" shape="1153.45,1031.21 1154.37,1031.21 1155.67,1031.95"/>
    </edge>
    <edge id=":1168929634_3" function="internal">
        <lane id=":1168929634_3_0" index="0" speed="27.78" length="4.19" shape="1157.09,1027.67 1157.23,1028.41 1156.89,1029.15 1156.06,1029.90 1154.75,1030.65"/>
    </edge>
    <edge id=":1168929634_4" function="internal">
        <lane id=":1168929634_4_0" index="0" speed="27.78" length="4.45" shape="1154.15,1029.16 1158.47,1030.21"/>
    </edge>
    <edge id=":1168929634_5" function="internal">
        <lane id=":1168929634_5_0" index="0" speed="27.78" length="2.41" shape="1154.15,1029.16 1154.01,1030.64 1153.48,1031.40"/>
    </edge>
    <edge id=":1168929634_10" function="internal">
        <lane id=":1168929634_10_0" index="0" speed="27.78" length="2.41" shape="1153.48,1031.40 1152.56,1031.43 1151.24,1030.73"/>
    </edge>
    <edge id=":1168929634_6" function="internal">
        <lane id=":1168929634_6_0" index="0" speed="27.78" length="4.79" shape="1153.05,1031.54 1148.31,1032.25"/>
    </edge>
    <edge id=":1168929634_7" function="internal">
        <lane id=":1168929634_7_0" index="0" speed="27.78" length="1.92" shape="1153.05,1031.54 1154.75,1030.65"/>
    </edge>
    <edge id=":1168929634_8" function="internal">
        <lane id=":1168929634_8_0" index="0" speed="27.78" length="3.07" shape="1153.05,1031.54 1153.86,1031.13 1154.57,1031.06 1155.17,1031.34 1155.67,1031.95"/>
    </edge>
    <edge id=":1168929652_0" function="internal">
        <lane id=":1168929652_0_0" index="0" speed="15.28" length="7.91" shape="768.35,994.62 766.52,992.55 764.86,991.13 763.38,990.36 762.09,990.25"/>
    </edge>
    <edge id=":1168929652_1" function="internal">
        <lane id=":1168929652_1_0" index="0" speed="15.28" length="13.64" shape="768.35,994.62 766.23,991.12 766.13,988.40 768.05,986.47 771.98,985.32"/>
    </edge>
    <edge id=":1168929652_2" function="internal">
        <lane id=":1168929652_2_0" index="0" speed="8.33" length="4.82" shape="768.35,994.62 768.22,993.14 768.61,992.30 769.51,992.11 770.92,992.56"/>
    </edge>
    <edge id=":1168929652_3" function="internal">
        <lane id=":1168929652_3_0" index="0" speed="15.28" length="5.83" shape="772.48,988.58 770.80,989.07 769.98,989.90 770.02,991.06 770.92,992.56"/>
    </edge>
    <edge id=":1168929652_4" function="internal">
        <lane id=":1168929652_4_0" index="0" speed="22.22" length="10.52" shape="772.48,988.58 769.46,989.04 767.28,989.37 765.09,989.73 762.09,990.25"/>
    </edge>
    <edge id=":1168929652_5" function="internal">
        <lane id=":1168929652_5_0" index="0" speed="22.22" length="2.41" shape="772.48,988.58 771.13,987.95 770.60,987.20"/>
    </edge>
    <edge id=":1168929652_9" function="internal">
        <lane id=":1168929652_9_0" index="0" speed="22.22" length="2.41" shape="770.60,987.20 770.88,986.32 771.98,985.32"/>
    </edge>
    <edge id=":1168929652_6" function="internal">
        <lane id=":1168929652_6_0" index="0" speed="22.22" length="10.61" shape="761.51,987.00 764.53,986.48 766.74,986.11 768.95,985.78 771.98,985.32"/>
    </edge>
    <edge id=":1168929652_7" function="internal">
        <lane id=":1168929652_7_0" index="0" speed="15.28" length="6.85" shape="761.51,987.00 763.72,987.06 766.03,988.01 767.73,989.30"/>
    </edge>
    <edge id=":1168929652_10" function="internal">
        <lane id=":1168929652_10_0" index="0" speed="15.28" length="4.58" shape="767.73,989.30 768.43,989.84 770.92,992.56"/>
    </edge>
    <edge id=":1168929652_8" function="internal">
        <lane id=":1168929652_8_0" index="0" speed="22.22" length="2.41" shape="761.51,987.00 762.87,987.60 763.42,988.34"/>
    </edge>
    <edge id=":1168929652_11" function="internal">
        <lane id=":1168929652_11_0" index="0" speed="22.22" length="2.41" shape="763.42,988.34 763.16,989.22 762.09,990.25"/>
    </edge>
    <edge id=":1168929657_0" function="internal">
        <lane id=":1168929657_0_0" index="0" speed="27.78" length="3.01" shape="1200.15,1044.81 1199.09,1045.33 1198.29,1045.56 1197.75,1045.50 1197.48,1045.15"/>
    </edge>
    <edge id=":1168929657_1" function="internal">
        <lane id=":1168929657_1_0" index="0" speed="27.78" length="7.55" shape="1198.54,1041.93 1194.24,1048.14"/>
    </edge>
    <edge id=":1168929657_2" function="internal">
        <lane id=":1168929657_2_0" index="0" speed="27.78" length="2.41" shape="1198.54,1041.93 1197.06,1041.82 1196.30,1041.30"/>
    </edge>
    <edge id=":1168929657_9" function="internal">
        <lane id=":1168929657_9_0" index="0" speed="27.78" length="2.41" shape="1196.30,1041.30 1196.26,1040.38 1196.93,1039.05"/>
    </edge>
    <edge id=":1168929657_3" function="internal">
        <lane id=":1168929657_3_0" index="0" speed="27.78" length="3.74" shape="1191.86,1037.15 1192.29,1037.33 1193.02,1037.22 1194.03,1036.84 1195.32,1036.17"/>
    </edge>
    <edge id=":1168929657_4" function="internal">
        <lane id=":1168929657_4_0" index="0" speed="27.78" length="9.78" shape="1191.86,1037.15 1197.48,1045.15"/>
    </edge>
    <edge id=":1168929657_5" function="internal">
        <lane id=":1168929657_5_0" index="0" speed="27.78" length="2.21" shape="1191.86,1037.15 1192.06,1039.36"/>
    </edge>
    <edge id=":1168929657_10" function="internal">
        <lane id=":1168929657_10_0" index="0" speed="27.78" length="5.94" shape="1192.06,1039.36 1192.62,1045.27"/>
    </edge>
    <edge id=":1168929657_6" function="internal">
        <lane id=":1168929657_6_0" index="0" speed="27.78" length="7.58" shape="1189.37,1039.52 1196.93,1039.05"/>
    </edge>
    <edge id=":1168929657_7" function="internal">
        <lane id=":1168929657_7_0" index="0" speed="27.78" length="4.23" shape="1190.99,1042.40 1193.23,1041.53 1195.05,1041.71"/>
    </edge>
    <edge id=":1168929657_11" function="internal">
        <lane id=":1168929657_11_0" index="0" speed="27.78" length="4.32" shape="1195.05,1041.71 1196.47,1042.91 1197.48,1045.15"/>
    </edge>
    <edge id=":1168929657_8" function="internal">